<?xml version="1.0" encoding="UTF-8"?>

<!-- generated on 2023-12-23 16:07:17 by Eclipse SUMO netedit Version 1.19.0
<configuration xmlns:xsi="http://www.w3.org/2001/XMLSchema-instance" xsi:noNamespaceSchemaLocation="http://sumo.dlr.de/xsd/neteditConfiguration.xsd">

    <input>
        <sumo-net-file value="K:\ora\orasumo\project_one\one_intersection_left\one_intersection.net.xml"/>
    </input>

    <output>
        <output-file value="K:\ora\orasumo\project_one\one_intersection_left\one_intersection.net.xml"/>
    </output>

    <processing>
        <geometry.min-radius.fix.railways value="false"/>
        <geometry.max-grade.fix value="false"/>
        <offset.disable-normalization value="true"/>
        <lefthand value="0"/>
    </processing>

    <junctions>
        <no-internal-links value="false"/>
        <no-turnarounds value="true"/>
        <junctions.corner-detail value="5"/>
        <junctions.limit-turn-speed value="5.50"/>
        <rectangular-lane-cut value="0"/>
    </junctions>

    <pedestrian>
        <walkingareas value="1"/>
    </pedestrian>

</configuration>
-->

<net version="1.16" junctionCornerDetail="5" walkingareas="true" limitTurnSpeed="5.50" xmlns:xsi="http://www.w3.org/2001/XMLSchema-instance" xsi:noNamespaceSchemaLocation="http://sumo.dlr.de/xsd/net_file.xsd">

    <location netOffset="0.00,0.00" convBoundary="-45.45,-26.12,131.16,134.75" origBoundary="-10000000000.00,-10000000000.00,10000000000.00,10000000000.00" projParameter="!"/>

    <edge id=":J0_w0" function="walkingarea">
        <lane id=":J0_w0_0" index="0" allow="pedestrian" speed="2.78" length="16.00" width="3.20" shape="-45.45,58.47 -45.59,48.87 -45.31,68.07 -45.45,58.47"/>
    </edge>
    <edge id=":J1_0" function="internal">
        <lane id=":J1_0_0" index="0" speed="6.47" length="9.03" shape="24.76,71.04 24.41,68.59 23.35,66.84 21.59,65.82 19.13,65.50"/>
    </edge>
    <edge id=":J1_1" function="internal">
        <lane id=":J1_1_0" index="0" speed="50.00" length="28.19" shape="24.76,71.04 25.16,42.72"/>
        <lane id=":J1_1_1" index="1" speed="50.00" length="28.19" shape="27.96,71.04 28.36,42.81"/>
        <lane id=":J1_1_2" index="2" speed="50.00" length="28.19" shape="31.16,71.04 31.56,42.90"/>
        <lane id=":J1_1_3" index="3" speed="50.00" length="28.19" shape="34.36,71.04 34.76,42.99"/>
    </edge>
    <edge id=":J1_5" function="internal">
        <lane id=":J1_5_0" index="0" speed="11.48" length="30.30" shape="37.56,71.04 38.93,64.29 43.03,59.45 49.87,56.55 59.45,55.57"/>
    </edge>
    <edge id=":J1_6" function="internal">
        <lane id=":J1_6_0" index="0" speed="6.66" length="9.50" shape="59.46,65.17 56.88,65.54 55.03,66.64 53.93,68.48 53.56,71.05"/>
        <lane id=":J1_6_1" index="1" speed="7.46" length="12.19" shape="59.46,65.17 55.48,65.54 52.63,66.65 50.93,68.48 50.36,71.05"/>
        <lane id=":J1_6_2" index="2" speed="8.22" length="15.02" shape="59.46,65.17 54.08,65.54 50.23,66.65 47.93,68.48 47.16,71.05"/>
    </edge>
    <edge id=":J1_9" function="internal">
        <lane id=":J1_9_0" index="0" speed="50.00" length="40.35" shape="59.46,65.17 19.13,65.50"/>
        <lane id=":J1_9_1" index="1" speed="50.00" length="40.35" shape="59.46,61.97 19.09,62.30"/>
    </edge>
    <edge id=":J1_11" function="internal">
        <lane id=":J1_11_0" index="0" speed="11.85" length="33.11" shape="59.45,58.77 48.48,57.80 40.71,54.84 36.13,49.91 34.76,42.99"/>
        <lane id=":J1_11_1" index="1" speed="11.35" length="30.29" shape="59.45,58.77 49.88,57.80 43.11,54.86 39.13,49.96 37.96,43.08"/>
    </edge>
    <edge id=":J1_13" function="internal">
        <lane id=":J1_13_0" index="0" speed="6.44" length="9.03" shape="53.95,43.53 54.23,46.00 55.24,47.76 56.98,48.82 59.44,49.17"/>
    </edge>
    <edge id=":J1_14" function="internal">
        <lane id=":J1_14_0" index="0" speed="50.00" length="27.65" shape="53.95,43.53 53.56,71.05"/>
        <lane id=":J1_14_1" index="1" speed="50.00" length="27.65" shape="50.75,43.44 50.36,71.05"/>
        <lane id=":J1_14_2" index="2" speed="50.00" length="27.65" shape="47.55,43.35 47.16,71.05"/>
        <lane id=":J1_14_3" index="3" speed="50.00" length="27.65" shape="44.35,43.26 43.96,71.05"/>
    </edge>
    <edge id=":J1_18" function="internal">
        <lane id=":J1_18_0" index="0" speed="11.71" length="30.58" shape="41.15,43.17 39.61,50.02 35.41,54.96 28.55,57.98 19.04,59.10"/>
    </edge>
    <edge id=":J1_19" function="internal">
        <lane id=":J1_19_0" index="0" speed="7.05" length="10.42" shape="18.89,49.50 21.57,49.05 23.50,47.76 24.70,45.66 25.16,42.72"/>
        <lane id=":J1_19_1" index="1" speed="7.80" length="12.99" shape="18.89,49.50 22.97,49.03 25.90,47.76 27.70,45.69 28.36,42.81"/>
        <lane id=":J1_19_2" index="2" speed="8.53" length="15.72" shape="18.89,49.50 24.37,49.02 28.30,47.76 30.70,45.72 31.56,42.90"/>
    </edge>
    <edge id=":J1_22" function="internal">
        <lane id=":J1_22_0" index="0" speed="50.00" length="40.53" shape="18.89,49.50 59.44,49.17"/>
        <lane id=":J1_22_1" index="1" speed="50.00" length="40.53" shape="18.94,52.70 59.44,52.37"/>
    </edge>
    <edge id=":J1_24" function="internal">
        <lane id=":J1_24_0" index="0" speed="11.87" length="32.87" shape="18.99,55.90 29.91,56.71 37.72,59.50 42.40,64.28 43.96,71.05"/>
        <lane id=":J1_24_1" index="1" speed="11.37" length="30.08" shape="18.99,55.90 28.51,56.73 35.32,59.52 39.40,64.30 40.76,71.05"/>
    </edge>
    <edge id=":J1_w0" function="walkingarea">
        <lane id=":J1_w0_0" index="0" allow="pedestrian" speed="2.78" length="29.36" width="3.20" shape="23.16,71.04 55.16,71.05 55.64,68.67 56.23,67.84 57.07,67.25 58.15,66.89 59.47,66.77 59.44,47.57 57.23,47.13 56.46,46.57 55.93,45.80 55.63,44.80 55.55,43.58 23.56,42.68 22.98,45.55 22.32,46.56 21.41,47.29 20.26,47.74 18.87,47.90 19.16,67.10 21.38,67.51 22.16,68.06 22.71,68.83 23.05,69.82"/>
    </edge>
    <edge id=":J2_w0" function="walkingarea">
        <lane id=":J2_w0_0" index="0" allow="pedestrian" speed="2.78" length="28.80" width="3.20" shape="39.14,134.75 23.14,134.75 55.14,134.75 39.14,134.75"/>
    </edge>
    <edge id=":J3_w0" function="walkingarea">
        <lane id=":J3_w0_0" index="0" allow="pedestrian" speed="2.78" length="16.00" width="3.20" shape="131.16,57.06 131.17,66.66 131.15,47.46 131.16,57.06"/>
    </edge>
    <edge id=":J4_w0" function="walkingarea">
        <lane id=":J4_w0_0" index="0" allow="pedestrian" speed="2.78" length="28.80" width="3.20" shape="41.50,-26.12 57.49,-25.67 25.51,-26.57 41.50,-26.12"/>
    </edge>

    <edge id="-E0" from="J1" to="J0" priority="-1">
        <lane id="-E0_0" index="0" speed="50.00" length="64.47" shape="19.13,65.50 -45.33,66.47"/>
        <lane id="-E0_1" index="1" speed="50.00" length="64.47" shape="19.09,62.30 -45.38,63.27"/>
        <lane id="-E0_2" index="2" speed="50.00" length="64.47" shape="19.04,59.10 -45.43,60.07"/>
    </edge>
    <edge id="-E1" from="J1" to="J2" priority="-1">
        <lane id="-E1_0" index="0" speed="50.00" length="63.70" shape="53.56,71.05 53.54,134.75"/>
        <lane id="-E1_1" index="1" speed="50.00" length="63.70" shape="50.36,71.05 50.34,134.75"/>
        <lane id="-E1_2" index="2" speed="50.00" length="63.70" shape="47.16,71.05 47.14,134.75"/>
        <lane id="-E1_3" index="3" speed="50.00" length="63.70" shape="43.96,71.05 43.94,134.75"/>
        <lane id="-E1_4" index="4" speed="50.00" length="63.70" shape="40.76,71.05 40.74,134.75"/>
    </edge>
    <edge id="-E2" from="J1" to="J3" priority="-1">
        <lane id="-E2_0" index="0" speed="50.00" length="71.71" shape="59.44,49.17 131.15,49.06"/>
        <lane id="-E2_1" index="1" speed="50.00" length="71.71" shape="59.44,52.37 131.15,52.26"/>
        <lane id="-E2_2" index="2" speed="50.00" length="71.71" shape="59.45,55.57 131.16,55.46"/>
    </edge>
    <edge id="-E3" from="J4" to="J1" priority="-1">
        <lane id="-E3_0" index="0" speed="50.00" length="69.27" shape="55.89,-25.72 53.95,43.53"/>
        <lane id="-E3_1" index="1" speed="50.00" length="69.27" shape="52.70,-25.81 50.75,43.44"/>
        <lane id="-E3_2" index="2" speed="50.00" length="69.27" shape="49.50,-25.90 47.55,43.35"/>
        <lane id="-E3_3" index="3" speed="50.00" length="69.27" shape="46.30,-25.99 44.35,43.26"/>
        <lane id="-E3_4" index="4" speed="50.00" length="69.27" shape="43.10,-26.08 41.15,43.17"/>
    </edge>
    <edge id="E0" from="J0" to="J1" priority="-1">
        <lane id="E0_0" index="0" speed="50.00" length="64.47" shape="-45.57,50.47 18.89,49.50"/>
        <lane id="E0_1" index="1" speed="50.00" length="64.47" shape="-45.52,53.67 18.94,52.70"/>
        <lane id="E0_2" index="2" speed="50.00" length="64.47" shape="-45.47,56.87 18.99,55.90"/>
    </edge>
    <edge id="E1" from="J2" to="J1" priority="-1">
        <lane id="E1_0" index="0" speed="50.00" length="63.70" shape="24.74,134.75 24.76,71.04"/>
        <lane id="E1_1" index="1" speed="50.00" length="63.70" shape="27.94,134.75 27.96,71.04"/>
        <lane id="E1_2" index="2" speed="50.00" length="63.70" shape="31.14,134.75 31.16,71.04"/>
        <lane id="E1_3" index="3" speed="50.00" length="63.70" shape="34.34,134.75 34.36,71.04"/>
        <lane id="E1_4" index="4" speed="50.00" length="63.70" shape="37.54,134.75 37.56,71.04"/>
    </edge>
    <edge id="E2" from="J3" to="J1" priority="-1">
        <lane id="E2_0" index="0" speed="50.00" length="71.71" shape="131.17,65.06 59.46,65.17"/>
        <lane id="E2_1" index="1" speed="50.00" length="71.71" shape="131.17,61.86 59.46,61.97"/>
        <lane id="E2_2" index="2" speed="50.00" length="71.71" shape="131.16,58.66 59.45,58.77"/>
    </edge>
    <edge id="E3" from="J1" to="J4" priority="-1">
        <lane id="E3_0" index="0" speed="50.00" length="69.27" shape="25.16,42.72 27.11,-26.52"/>
        <lane id="E3_1" index="1" speed="50.00" length="69.27" shape="28.36,42.81 30.30,-26.43"/>
        <lane id="E3_2" index="2" speed="50.00" length="69.27" shape="31.56,42.90 33.50,-26.34"/>
        <lane id="E3_3" index="3" speed="50.00" length="69.27" shape="34.76,42.99 36.70,-26.25"/>
        <lane id="E3_4" index="4" speed="50.00" length="69.27" shape="37.96,43.08 39.90,-26.16"/>
    </edge>

    <tlLogic id="J1" type="static" programID="0" offset="0">
        <phase duration="19" state="GGGGGrrrrrrrrGGGGGrrrrrrrr"/>
        <phase duration="10" state="yyyyyrrrrrrrryyyyyrrrrrrrr"/>
        <phase duration="6"  state="rrrrrGrrrrrrrrrrrrGrrrrrrr"/>
        <phase duration="10" state="rrrrryrrrrrrrrrrrryrrrrrrr"/>
        <phase duration="19" state="rrrrrrGGGGGrrrrrrrrGGGGGrr"/>
        <phase duration="10" state="rrrrrryyyyyrrrrrrrryyyyyrr"/>
        <phase duration="6"  state="rrrrrrrrrrrGGrrrrrrrrrrrGG"/>
        <phase duration="10" state="rrrrrrrrrrryyrrrrrrrrrrryy"/>
    </tlLogic>

    <junction id="J0" type="dead_end" x="-45.45" y="58.47" incLanes="-E0_0 -E0_1 -E0_2" intLanes="" shape="-45.45,58.47 -45.31,68.07 -45.45,58.47"/>
    <junction id="J1" type="traffic_light" x="39.16" y="57.20" incLanes="E1_0 E1_1 E1_2 E1_3 E1_4 E2_0 E2_1 E2_2 -E3_0 -E3_1 -E3_2 -E3_3 -E3_4 E0_0 E0_1 E0_2" intLanes=":J1_0_0 :J1_1_0 :J1_1_1 :J1_1_2 :J1_1_3 :J1_5_0 :J1_6_0 :J1_6_1 :J1_6_2 :J1_9_0 :J1_9_1 :J1_11_0 :J1_11_1 :J1_13_0 :J1_14_0 :J1_14_1 :J1_14_2 :J1_14_3 :J1_18_0 :J1_19_0 :J1_19_1 :J1_19_2 :J1_22_0 :J1_22_1 :J1_24_0 :J1_24_1" shape="23.16,71.04 55.16,71.05 55.64,68.67 56.23,67.84 57.07,67.25 58.15,66.89 59.47,66.77 59.44,47.57 57.23,47.13 56.46,46.57 55.93,45.80 55.63,44.80 55.55,43.58 23.56,42.68 22.98,45.55 22.32,46.56 21.41,47.29 20.26,47.74 18.87,47.90 19.16,67.10 21.38,67.51 22.16,68.06 22.71,68.83 23.05,69.82">
        <request index="0"  response="00000000000000000000000000" foes="00000000000000011000000000" cont="0"/>
        <request index="1"  response="00000000000000000000000000" foes="11111111000001111000000000" cont="0"/>
        <request index="2"  response="00000000000000000000000000" foes="11111111000001111000000000" cont="0"/>
        <request index="3"  response="00000000000000000000000000" foes="11111111000001111000000000" cont="0"/>
        <request index="4"  response="00000000000000000000000000" foes="11111111000001111000000000" cont="0"/>
        <request index="5"  response="00000000111100000000000000" foes="11000000111101111000000000" cont="0"/>
        <request index="6"  response="00000000111100000000000000" foes="00000000111100000000000000" cont="0"/>
        <request index="7"  response="00000000111100000000000000" foes="00000000111100000000000000" cont="0"/>
        <request index="8"  response="00000000111100000000000000" foes="00000000111100000000000000" cont="0"/>
        <request index="9"  response="00000000111100000000111111" foes="11000000111100000000111111" cont="0"/>
        <request index="10" response="00000000111100000000111111" foes="11000000111100000000111111" cont="0"/>
        <request index="11" response="00110001111100000000111110" foes="00110001111100000000111110" cont="0"/>
        <request index="12" response="00110001111100000000111110" foes="00110001111100000000111110" cont="0"/>
        <request index="13" response="00000000000000000000000000" foes="00110000000000000000000000" cont="0"/>
        <request index="14" response="00000000000000000000000000" foes="11110000000001111111100000" cont="0"/>
        <request index="15" response="00000000000000000000000000" foes="11110000000001111111100000" cont="0"/>
        <request index="16" response="00000000000000000000000000" foes="11110000000001111111100000" cont="0"/>
        <request index="17" response="00000000000000000000000000" foes="11110000000001111111100000" cont="0"/>
        <request index="18" response="00000000000000000000011110" foes="11110000000001100000011110" cont="0"/>
        <request index="19" response="00000000000000000000011110" foes="00000000000000000000011110" cont="0"/>
        <request index="20" response="00000000000000000000011110" foes="00000000000000000000011110" cont="0"/>
        <request index="21" response="00000000000000000000011110" foes="00000000000000000000011110" cont="0"/>
        <request index="22" response="00000001111110000000011110" foes="00000001111111100000011110" cont="0"/>
        <request index="23" response="00000001111110000000011110" foes="00000001111111100000011110" cont="0"/>
        <request index="24" response="00000001111100011000111110" foes="00000001111100011000111110" cont="0"/>
        <request index="25" response="00000001111100011000111110" foes="00000001111100011000111110" cont="0"/>
    </junction>
    <junction id="J2" type="dead_end" x="39.14" y="134.75" incLanes="-E1_0 -E1_1 -E1_2 -E1_3 -E1_4" intLanes="" shape="39.14,134.75 55.14,134.75 39.14,134.75"/>
    <junction id="J3" type="dead_end" x="131.16" y="57.06" incLanes="-E2_0 -E2_1 -E2_2" intLanes="" shape="131.16,57.06 131.15,47.46 131.16,57.06"/>
    <junction id="J4" type="dead_end" x="41.50" y="-26.12" incLanes="E3_0 E3_1 E3_2 E3_3 E3_4" intLanes="" shape="41.50,-26.12 25.51,-26.57 41.50,-26.12"/>

    <connection from="-E3" to="-E2" fromLane="0" toLane="0" via=":J1_13_0" tl="J1" linkIndex="13" dir="r" state="O"/>
    <connection from="-E3" to="-E1" fromLane="0" toLane="0" via=":J1_14_0" tl="J1" linkIndex="14" dir="s" state="O"/>
    <connection from="-E3" to="-E1" fromLane="1" toLane="1" via=":J1_14_1" tl="J1" linkIndex="15" dir="s" state="O"/>
    <connection from="-E3" to="-E1" fromLane="2" toLane="2" via=":J1_14_2" tl="J1" linkIndex="16" dir="s" state="O"/>
    <connection from="-E3" to="-E1" fromLane="3" toLane="3" via=":J1_14_3" tl="J1" linkIndex="17" dir="s" state="O"/>
    <connection from="-E3" to="-E0" fromLane="4" toLane="2" via=":J1_18_0" tl="J1" linkIndex="18" dir="l" state="o"/>
    <connection from="E0" to="E3" fromLane="0" toLane="0" via=":J1_19_0" tl="J1" linkIndex="19" dir="r" state="o"/>
    <connection from="E0" to="E3" fromLane="0" toLane="1" via=":J1_19_1" tl="J1" linkIndex="20" dir="r" state="o"/>
    <connection from="E0" to="E3" fromLane="0" toLane="2" via=":J1_19_2" tl="J1" linkIndex="21" dir="r" state="o"/>
    <connection from="E0" to="-E2" fromLane="0" toLane="0" via=":J1_22_0" tl="J1" linkIndex="22" dir="s" state="o"/>
    <connection from="E0" to="-E2" fromLane="1" toLane="1" via=":J1_22_1" tl="J1" linkIndex="23" dir="s" state="o"/>
    <connection from="E0" to="-E1" fromLane="2" toLane="3" via=":J1_24_0" tl="J1" linkIndex="24" dir="l" state="o"/>
    <connection from="E0" to="-E1" fromLane="2" toLane="4" via=":J1_24_1" tl="J1" linkIndex="25" dir="l" state="o"/>
    <connection from="E1" to="-E0" fromLane="0" toLane="0" via=":J1_0_0" tl="J1" linkIndex="0" dir="r" state="O"/>
    <connection from="E1" to="E3" fromLane="0" toLane="0" via=":J1_1_0" tl="J1" linkIndex="1" dir="s" state="O"/>
    <connection from="E1" to="E3" fromLane="1" toLane="1" via=":J1_1_1" tl="J1" linkIndex="2" dir="s" state="O"/>
    <connection from="E1" to="E3" fromLane="2" toLane="2" via=":J1_1_2" tl="J1" linkIndex="3" dir="s" state="O"/>
    <connection from="E1" to="E3" fromLane="3" toLane="3" via=":J1_1_3" tl="J1" linkIndex="4" dir="s" state="O"/>
    <connection from="E1" to="-E2" fromLane="4" toLane="2" via=":J1_5_0" tl="J1" linkIndex="5" dir="l" state="o"/>
    <connection from="E2" to="-E1" fromLane="0" toLane="0" via=":J1_6_0" tl="J1" linkIndex="6" dir="r" state="o"/>
    <connection from="E2" to="-E1" fromLane="0" toLane="1" via=":J1_6_1" tl="J1" linkIndex="7" dir="r" state="o"/>
    <connection from="E2" to="-E1" fromLane="0" toLane="2" via=":J1_6_2" tl="J1" linkIndex="8" dir="r" state="o"/>
    <connection from="E2" to="-E0" fromLane="0" toLane="0" via=":J1_9_0" tl="J1" linkIndex="9" dir="s" state="o"/>
    <connection from="E2" to="-E0" fromLane="1" toLane="1" via=":J1_9_1" tl="J1" linkIndex="10" dir="s" state="o"/>
    <connection from="E2" to="E3" fromLane="2" toLane="3" via=":J1_11_0" tl="J1" linkIndex="11" dir="l" state="o"/>
    <connection from="E2" to="E3" fromLane="2" toLane="4" via=":J1_11_1" tl="J1" linkIndex="12" dir="l" state="o"/>

    <connection from=":J1_0" to="-E0" fromLane="0" toLane="0" dir="r" state="M"/>
    <connection from=":J1_1" to="E3" fromLane="0" toLane="0" dir="s" state="M"/>
    <connection from=":J1_1" to="E3" fromLane="1" toLane="1" dir="s" state="M"/>
    <connection from=":J1_1" to="E3" fromLane="2" toLane="2" dir="s" state="M"/>
    <connection from=":J1_1" to="E3" fromLane="3" toLane="3" dir="s" state="M"/>
    <connection from=":J1_5" to="-E2" fromLane="0" toLane="2" dir="l" state="M"/>
    <connection from=":J1_6" to="-E1" fromLane="0" toLane="0" dir="r" state="M"/>
    <connection from=":J1_6" to="-E1" fromLane="1" toLane="1" dir="r" state="M"/>
    <connection from=":J1_6" to="-E1" fromLane="2" toLane="2" dir="r" state="M"/>
    <connection from=":J1_9" to="-E0" fromLane="0" toLane="0" dir="s" state="M"/>
    <connection from=":J1_9" to="-E0" fromLane="1" toLane="1" dir="s" state="M"/>
    <connection from=":J1_11" to="E3" fromLane="0" toLane="3" dir="l" state="M"/>
    <connection from=":J1_11" to="E3" fromLane="1" toLane="4" dir="l" state="M"/>
    <connection from=":J1_13" to="-E2" fromLane="0" toLane="0" dir="r" state="M"/>
    <connection from=":J1_14" to="-E1" fromLane="0" toLane="0" dir="s" state="M"/>
    <connection from=":J1_14" to="-E1" fromLane="1" toLane="1" dir="s" state="M"/>
    <connection from=":J1_14" to="-E1" fromLane="2" toLane="2" dir="s" state="M"/>
    <connection from=":J1_14" to="-E1" fromLane="3" toLane="3" dir="s" state="M"/>
    <connection from=":J1_18" to="-E0" fromLane="0" toLane="2" dir="l" state="M"/>
    <connection from=":J1_19" to="E3" fromLane="0" toLane="0" dir="r" state="M"/>
    <connection from=":J1_19" to="E3" fromLane="1" toLane="1" dir="r" state="M"/>
    <connection from=":J1_19" to="E3" fromLane="2" toLane="2" dir="r" state="M"/>
    <connection from=":J1_22" to="-E2" fromLane="0" toLane="0" dir="s" state="M"/>
    <connection from=":J1_22" to="-E2" fromLane="1" toLane="1" dir="s" state="M"/>
    <connection from=":J1_24" to="-E1" fromLane="0" toLane="3" dir="l" state="M"/>
    <connection from=":J1_24" to="-E1" fromLane="1" toLane="4" dir="l" state="M"/>

    <connection from=":J0_w0" to="E0" fromLane="0" toLane="0" dir="s" state="M"/>
    <connection from="-E0" to=":J0_w0" fromLane="0" toLane="0" dir="s" state="M"/>
    <connection from=":J1_w0" to="-E1" fromLane="0" toLane="0" dir="s" state="M"/>
    <connection from=":J1_w0" to="-E2" fromLane="0" toLane="0" dir="s" state="M"/>
    <connection from=":J1_w0" to="E3" fromLane="0" toLane="0" dir="s" state="M"/>
    <connection from=":J1_w0" to="-E0" fromLane="0" toLane="0" dir="s" state="M"/>
    <connection from="E1" to=":J1_w0" fromLane="0" toLane="0" dir="s" state="M"/>
    <connection from="E2" to=":J1_w0" fromLane="0" toLane="0" dir="s" state="M"/>
    <connection from="-E3" to=":J1_w0" fromLane="0" toLane="0" dir="s" state="M"/>
    <connection from="E0" to=":J1_w0" fromLane="0" toLane="0" dir="s" state="M"/>
    <connection from=":J2_w0" to="E1" fromLane="0" toLane="0" dir="s" state="M"/>
    <connection from="-E1" to=":J2_w0" fromLane="0" toLane="0" dir="s" state="M"/>
    <connection from=":J3_w0" to="E2" fromLane="0" toLane="0" dir="s" state="M"/>
    <connection from="-E2" to=":J3_w0" fromLane="0" toLane="0" dir="s" state="M"/>
    <connection from=":J4_w0" to="-E3" fromLane="0" toLane="0" dir="s" state="M"/>
    <connection from="E3" to=":J4_w0" fromLane="0" toLane="0" dir="s" state="M"/>
</net>
