<?xml version="1.0" encoding="UTF-8"?>

<configuration xmlns:xsi="http://www.w3.org/2001/XMLSchema-instance" xsi:noNamespaceSchemaLocation="http://sumo.dlr.de/xsd/sumoConfiguration.xsd">

    <input>
        <net-file value="one_intersection.net.xml"/>
        <route-files value="one_intersection_random.rou.xml"/>
        
    </input>
    
    <time>
        <begin value = "0"/>
        <end value = "3600"/>
    </time>
</configuration>